27
crest/conf_repr_g16/0.out	Energy: -414972.2237477
O         -3.50630       -1.39193       -0.36547
N         -3.12082       -0.23288       -0.11630
O         -3.89531        0.72856        0.05511
C         -1.68647       -0.02406       -0.00830
C         -1.30132        1.26055        0.27605
N         -0.05713        1.75023        0.38648
C          1.20573        1.02422        0.35884
H          1.85396        1.55325        1.07368
C          1.90819        1.03485       -0.99749
C          3.30677        0.42853       -0.83404
C          3.25929       -0.96742       -0.20712
C          2.46515       -0.97765        1.10087
C          1.05522       -0.42424        0.86499
H          0.47914       -0.40284        1.80361
N          0.40855       -1.31777       -0.09093
C         -0.83903       -1.13830       -0.38538
H         -2.09616        1.98728        0.41967
H          0.00176        2.73543        0.61540
H          1.31359        0.45691       -1.71292
H          1.97374        2.06261       -1.37562
H          3.81013        0.39023       -1.80682
H          3.90672        1.09507       -0.19825
H          2.78121       -1.66436       -0.90246
H          4.27856       -1.33075       -0.03045
H          2.37999       -1.99941        1.48507
H          2.97546       -0.37941        1.86829
H         -1.30058       -1.89292       -1.02162
