%mem=10GB
%NPROC=4
%NoSave
#MP2/6-31G* SCF=Tight  Opt=ModRedun 

optimization for geometry 0

0 1
  9 0   0.00200  -0.00400   0.00200
  6 0  -0.01600   1.34700   0.00900
  6 0  -1.20300   2.02000   0.03000
  6 0  -1.19500   3.42400   0.03700
  6 0  -2.49600   4.18500   0.06100
  9 0  -2.23200   5.55900   0.06400
  9 0  -3.24800   3.85700  -1.07200
  9 0  -3.21500   3.84500   1.21200
  6 0  -0.02000   4.09300   0.02400
  7 0   1.16100   3.42000   0.00300
  6 0   1.18800   2.07400   0.00200
 16 0   2.68600   1.24700  -0.02500
  1 0  -2.13800   1.47900   0.04000
  1 0  -0.02000   5.17300   0.03000
  1 0   1.99500   3.91600  -0.00700



