%NPROC=4
%NoSave
#HF/6-31G*  Opt=Z-matrix NoSymm

water interaction with atom F7

    0 1
  9 -1  -1.96930   2.05368   0.00007
  6 -1  -1.22225   0.94423   0.00003
  6 -1   0.14003   1.05740  -0.00002
  6 -1   0.92795  -0.12364  -0.00008
  6 -1   2.41466  -0.01865  -0.00001
  9 -1   3.00708  -1.23461  -0.00056
  9 -1   2.85829   0.65448  -1.08602
  9 -1   2.85827   0.65350   1.08665
  6 -1   0.30654  -1.34149  -0.00009
  7 -1  -1.05417  -1.38997  -0.00006
  6 -1  -1.93050  -0.31210   0.00000
 16 -1  -3.57098  -0.50661   0.00003
  1 -1   0.59686   2.04310  -0.00002
  1 -1   0.83176  -2.28899  -0.00015
  1 -1  -1.52148  -2.29639  -0.00009
X      7 RDUM    5 ADUM    4 DDUM
X     16 RDUM    7 ADUM    5 DDUM
H1     7 RX     16 ADUM   17 DH1
X     18 RDUM    7 ADUM   16 DDUM
OH2   18 ROH    19 ADUM    7 DOH2
H2    20 ROH    18 AHOH   16 DH2
Variables:
RX    2.33380
Constants:      
RDUM    1.00000
ROH     0.95720
ADUM   90.00000
AHOH  104.52000
DDUM    0.00000
DH1   180.00000
DOH2  180.00000
DH2   270.00000


